/*--------------------------------*- C++ -*----------------------------------*\
| =========                 |                                                 |
| \\      /  F ield         | OpenFOAM: The Open Source CFD Toolbox           |
|  \\    /   O peration     | Version:  plus                                  |
|   \\  /    A nd           | Web:      www.OpenFOAM.com                      |
|    \\/     M anipulation  |                                                 |
\*---------------------------------------------------------------------------*/
FoamFile
{
    version     2.0;
    format      ascii;
    class       volScalarField;
    object      p_rgh;
}
// * * * * * * * * * * * * * * * * * * * * * * * * * * * * * * * * * * * * * //

dimensions      [1 -1 -2 0 0 0 0];

internalField   uniform 101325;

boundaryField
{
  top
  {
      type            totalPressure;
      p0           uniform 101325;
  }

  // fluid_to_solid
  // {
  //     type fixedFluxPressure;
  // }

  bottom
  {
      type fixedFluxPressure;
      // phi phiAbs;
      // value uniform 0;
  }

  outlet
  {
    type fixedFluxPressure;
  }
  sym
  {
   type symmetry;
  }

}

// ************************************************************************* //
